! Model parameters
! Continuous equation parameters
 &PARM01
 viscAh=3.0E05,
 viscAr=3.0E-03,
 ! viscArNr=1.3E-03,1.4E-03,1.6E-03,1.9E-03,2.5E-03,3.4E-03,5.1E-03,8.3E-03,1.5E-02,2.8E-02,5.4E-02,1.1E-01,2.2E-01,4.4E-01,9.0E-01,1.8E+00,1.8E+00,1.8E+00,1.8E+00,1.8E+00,
 no_slip_sides=.TRUE.,
 no_slip_bottom=.TRUE.,
 diffKhT=5000.,
 diffKrT=5.E-5,
 ivdc_kappa=1.,
 implicitDiffusion=.TRUE.,
 eosType='LINEAR',
 tRef=20*1727., ! Celsius here
 tAlpha=7.08E-5,
 sBeta=0.,
 rhoNil=2670.,
 gravity=24., ! Leger (2011)
 rigidLid=.FALSE.,
 implicitFreeSurface=.TRUE.,
 exactConserv=.TRUE.,
 saltStepping=.FALSE.,
! globalFiles=.TRUE.,
 rotationPeriod=7.3549E+04, ! Leger (2011)
 HeatCapacity_Cp=1.3E+03,
 &

! Elliptic solver parameters
 &PARM02
 cg2dTargetResidual=1.E-7,
 cg2dMaxIters=1000,
 &

! Time stepping parameters
 &PARM03
 startTime=0., ! 0 yr
 endTime=466560000., ! 15 yr
 deltaT=300.,
 pChkptFreq=62208000., ! 2 yr
 chkptFreq=31104000., ! 1 yr
 dumpFreq=7776000., ! 3 mth
 monitorFreq=2592000., ! 1 mth
 monitorSelect=3,
 tauThetaClimRelax=864000., ! 10 day
 &

! Gridding parameters
 &PARM04
 usingSphericalPolarGrid=.TRUE.,
 rSphere=1.E+07,
 delX=85*3.,
 delY=84*2.,
 xgOrigin=-127.5,
 ygOrigin=-84.,
 delR=5.,7.,9.,11.,13.,15.,17.,19.,21.,23.,25.,28.,31.,34.,37.,40.,40.,40.,40.,40. ! NUM: 20, SUM: 495
 &

 &PARM05
 bathyFile='bathy.bin',
 thetaClimFile='SST_relax.bin',
 hydrogThetaFile='hydrogTheta.bin',
 lambdaThetaFile='SST_lambda.bin',
 ! viscAhDfile='viscAhfile.bin',
 ! viscAhZfile='viscAhfile.bin',
 &
